
*****
***** Welcome to the Xyce(TM) Parallel Electronic Simulator
*****
***** This is version Xyce Release 6.12-opensource
***** Date: Thu Aug 13 22:18:48 EDT 2020


***** Executing netlist RC_steady.cir

***** Reading and parsing netlist...
***** Setting up topology...

***** Device Count Summary ...
       I level 1 (Independent Current Source)  238
       R level 1 (Resistor)                   1472
       V level 1 (Independent Voltage Source)    1
       -------------------------------------------
       Total Devices                          1711
***** Setting up matrix structure...
***** Number of Unknowns = 514
***** Initializing...

------------------------------------------------------------
Operating point information:
Number of Resistor models: 1
          name R level 1 (Resistor)
          type                
         level               1
           TNOM             27
           DEFW          1e-05
         NARROW              0
              R              1
            TC1              0
            TCE              0
            TC2              0

            RSH              0

Number of Resistor instances: 220
          name     R_1_10_15_3     R_1_11_0_1     R_1_11_0_2     R_1_11_0_3    R_1_11_10_1    R_1_11_10_2    R_1_11_10_3
    R_1_11_11_1    R_1_11_11_2    R_1_11_11_3    R_1_11_12_1    R_1_11_12_2    R_1_11_12_3    R_1_11_13_1    R_1_11_13_2
    R_1_11_13_3    R_1_11_14_1    R_1_11_14_2    R_1_11_14_3    R_1_11_15_2    R_1_11_15_3     R_1_11_1_1     R_1_11_1_2
     R_1_11_1_3     R_1_11_2_1     R_1_11_2_2     R_1_11_2_3     R_1_11_3_1     R_1_11_3_2     R_1_11_3_3     R_1_11_4_1
     R_1_11_4_2     R_1_11_4_3     R_1_11_5_1     R_1_11_5_2     R_1_11_5_3     R_1_11_6_1     R_1_11_6_2     R_1_11_6_3
     R_1_11_7_1     R_1_11_7_2     R_1_11_7_3     R_1_11_8_1     R_1_11_8_2     R_1_11_8_3     R_1_11_9_1     R_1_11_9_2
     R_1_11_9_3     R_1_12_0_1     R_1_12_0_2     R_1_12_0_3    R_1_12_10_1    R_1_12_10_2    R_1_12_10_3    R_1_12_11_1
    R_1_12_11_2    R_1_12_11_3    R_1_12_12_1    R_1_12_12_2    R_1_12_12_3    R_1_12_13_1    R_1_12_13_2    R_1_12_13_3
    R_1_12_14_1    R_1_12_14_2    R_1_12_14_3    R_1_12_15_2    R_1_12_15_3     R_1_12_1_1     R_1_12_1_2     R_1_12_1_3
     R_1_12_2_1     R_1_12_2_2     R_1_12_2_3     R_1_12_3_1     R_1_12_3_2     R_1_12_3_3     R_1_12_4_1     R_1_12_4_2
     R_1_12_4_3     R_1_12_5_1     R_1_12_5_2     R_1_12_5_3     R_1_12_6_1     R_1_12_6_2     R_1_12_6_3     R_1_12_7_1
     R_1_12_7_2     R_1_12_7_3     R_1_12_8_1     R_1_12_8_2     R_1_12_8_3     R_1_12_9_1     R_1_12_9_2     R_1_12_9_3
     R_1_13_0_1     R_1_13_0_2     R_1_13_0_3    R_1_13_10_1    R_1_13_10_2    R_1_13_10_3    R_1_13_11_1    R_1_13_11_2
    R_1_13_11_3    R_1_13_12_1    R_1_13_12_2    R_1_13_12_3    R_1_13_13_1    R_1_13_13_2    R_1_13_13_3    R_1_13_14_1
    R_1_13_14_2    R_1_13_14_3    R_1_13_15_2    R_1_13_15_3     R_1_13_1_1     R_1_13_1_2     R_1_13_1_3     R_1_13_2_1
     R_1_13_2_2     R_1_13_2_3     R_1_13_3_1     R_1_13_3_2     R_1_13_3_3     R_1_13_4_1     R_1_13_4_2     R_1_13_4_3
     R_1_13_5_1     R_1_13_5_2     R_1_13_5_3     R_1_13_6_1     R_1_13_6_2     R_1_13_6_3     R_1_13_7_1     R_1_13_7_2
     R_1_13_7_3     R_1_13_8_1     R_1_13_8_2     R_1_13_8_3     R_1_13_9_1     R_1_13_9_2     R_1_13_9_3     R_1_14_0_1
     R_1_14_0_2     R_1_14_0_3    R_1_14_10_1    R_1_14_10_2    R_1_14_10_3    R_1_14_11_1    R_1_14_11_2    R_1_14_11_3
    R_1_14_12_1    R_1_14_12_2    R_1_14_12_3    R_1_14_13_1    R_1_14_13_2    R_1_14_13_3    R_1_14_14_1    R_1_14_14_2
    R_1_14_14_3    R_1_14_15_2    R_1_14_15_3     R_1_14_1_1     R_1_14_1_2     R_1_14_1_3     R_1_14_2_1     R_1_14_2_2
     R_1_14_2_3     R_1_14_3_1     R_1_14_3_2     R_1_14_3_3     R_1_14_4_1     R_1_14_4_2     R_1_14_4_3     R_1_14_5_1
     R_1_14_5_2     R_1_14_5_3     R_1_14_6_1     R_1_14_6_2     R_1_14_6_3     R_1_14_7_1     R_1_14_7_2     R_1_14_7_3
     R_1_14_8_1     R_1_14_8_2     R_1_14_8_3     R_1_14_9_1     R_1_14_9_2     R_1_14_9_3     R_1_15_0_1     R_1_15_0_3
    R_1_15_10_1    R_1_15_10_3    R_1_15_11_1    R_1_15_11_3    R_1_15_12_1    R_1_15_12_3    R_1_15_13_1    R_1_15_13_3
    R_1_15_14_1    R_1_15_14_3    R_1_15_15_3     R_1_15_1_1     R_1_15_1_3     R_1_15_2_1     R_1_15_2_3     R_1_15_3_1
     R_1_15_3_3     R_1_15_4_1     R_1_15_4_3     R_1_15_5_1     R_1_15_5_3     R_1_15_6_1     R_1_15_6_3     R_1_15_7_1
     R_1_15_7_3     R_1_15_8_1     R_1_15_8_3     R_1_15_9_1     R_1_15_9_3
         model R level 1 (Resistor)R level 1 (Resistor)R level 1 (Resistor)R level 1 (Resistor)R level 1 (Resistor)R level 1 (Resistor)R level 1 (Resistor)
R level 1 (Resistor)R level 1 (Resistor)R level 1 (Resistor)R level 1 (Resistor)R level 1 (Resistor)R level 1 (Resistor)R level 1 (Resistor)R level 1 (Resistor)
R level 1 (Resistor)R level 1 (Resistor)R level 1 (Resistor)R level 1 (Resistor)R level 1 (Resistor)R level 1 (Resistor)R level 1 (Resistor)R level 1 (Resistor)
R level 1 (Resistor)R level 1 (Resistor)R level 1 (Resistor)R level 1 (Resistor)R level 1 (Resistor)R level 1 (Resistor)R level 1 (Resistor)R level 1 (Resistor)
R level 1 (Resistor)R level 1 (Resistor)R level 1 (Resistor)R level 1 (Resistor)R level 1 (Resistor)R level 1 (Resistor)R level 1 (Resistor)R level 1 (Resistor)
R level 1 (Resistor)R level 1 (Resistor)R level 1 (Resistor)R level 1 (Resistor)R level 1 (Resistor)R level 1 (Resistor)R level 1 (Resistor)R level 1 (Resistor)
R level 1 (Resistor)R level 1 (Resistor)R level 1 (Resistor)R level 1 (Resistor)R level 1 (Resistor)R level 1 (Resistor)R level 1 (Resistor)R level 1 (Resistor)
R level 1 (Resistor)R level 1 (Resistor)R level 1 (Resistor)R level 1 (Resistor)R level 1 (Resistor)R level 1 (Resistor)R level 1 (Resistor)R level 1 (Resistor)
R level 1 (Resistor)R level 1 (Resistor)R level 1 (Resistor)R level 1 (Resistor)R level 1 (Resistor)R level 1 (Resistor)R level 1 (Resistor)R level 1 (Resistor)
R level 1 (Resistor)R level 1 (Resistor)R level 1 (Resistor)R level 1 (Resistor)R level 1 (Resistor)R level 1 (Resistor)R level 1 (Resistor)R level 1 (Resistor)
R level 1 (Resistor)R level 1 (Resistor)R level 1 (Resistor)R level 1 (Resistor)R level 1 (Resistor)R level 1 (Resistor)R level 1 (Resistor)R level 1 (Resistor)
R level 1 (Resistor)R level 1 (Resistor)R level 1 (Resistor)R level 1 (Resistor)R level 1 (Resistor)R level 1 (Resistor)R level 1 (Resistor)R level 1 (Resistor)
R level 1 (Resistor)R level 1 (Resistor)R level 1 (Resistor)R level 1 (Resistor)R level 1 (Resistor)R level 1 (Resistor)R level 1 (Resistor)R level 1 (Resistor)
R level 1 (Resistor)R level 1 (Resistor)R level 1 (Resistor)R level 1 (Resistor)R level 1 (Resistor)R level 1 (Resistor)R level 1 (Resistor)R level 1 (Resistor)
R level 1 (Resistor)R level 1 (Resistor)R level 1 (Resistor)R level 1 (Resistor)R level 1 (Resistor)R level 1 (Resistor)R level 1 (Resistor)R level 1 (Resistor)
R level 1 (Resistor)R level 1 (Resistor)R level 1 (Resistor)R level 1 (Resistor)R level 1 (Resistor)R level 1 (Resistor)R level 1 (Resistor)R level 1 (Resistor)
R level 1 (Resistor)R level 1 (Resistor)R level 1 (Resistor)R level 1 (Resistor)R level 1 (Resistor)R level 1 (Resistor)R level 1 (Resistor)R level 1 (Resistor)
R level 1 (Resistor)R level 1 (Resistor)R level 1 (Resistor)R level 1 (Resistor)R level 1 (Resistor)R level 1 (Resistor)R level 1 (Resistor)R level 1 (Resistor)
R level 1 (Resistor)R level 1 (Resistor)R level 1 (Resistor)R level 1 (Resistor)R level 1 (Resistor)R level 1 (Resistor)R level 1 (Resistor)R level 1 (Resistor)
R level 1 (Resistor)R level 1 (Resistor)R level 1 (Resistor)R level 1 (Resistor)R level 1 (Resistor)R level 1 (Resistor)R level 1 (Resistor)R level 1 (Resistor)
R level 1 (Resistor)R level 1 (Resistor)R level 1 (Resistor)R level 1 (Resistor)R level 1 (Resistor)R level 1 (Resistor)R level 1 (Resistor)R level 1 (Resistor)
R level 1 (Resistor)R level 1 (Resistor)R level 1 (Resistor)R level 1 (Resistor)R level 1 (Resistor)R level 1 (Resistor)R level 1 (Resistor)R level 1 (Resistor)
R level 1 (Resistor)R level 1 (Resistor)R level 1 (Resistor)R level 1 (Resistor)R level 1 (Resistor)R level 1 (Resistor)R level 1 (Resistor)R level 1 (Resistor)
R level 1 (Resistor)R level 1 (Resistor)R level 1 (Resistor)R level 1 (Resistor)R level 1 (Resistor)R level 1 (Resistor)R level 1 (Resistor)R level 1 (Resistor)
R level 1 (Resistor)R level 1 (Resistor)R level 1 (Resistor)R level 1 (Resistor)R level 1 (Resistor)R level 1 (Resistor)R level 1 (Resistor)R level 1 (Resistor)
R level 1 (Resistor)R level 1 (Resistor)R level 1 (Resistor)R level 1 (Resistor)R level 1 (Resistor)R level 1 (Resistor)R level 1 (Resistor)R level 1 (Resistor)
R level 1 (Resistor)R level 1 (Resistor)R level 1 (Resistor)R level 1 (Resistor)R level 1 (Resistor)R level 1 (Resistor)R level 1 (Resistor)R level 1 (Resistor)
R level 1 (Resistor)R level 1 (Resistor)R level 1 (Resistor)R level 1 (Resistor)R level 1 (Resistor)
            TCE              0              0              0              0              0              0              0
              0              0              0              0              0              0              0              0
              0              0              0              0              0              0              0              0
              0              0              0              0              0              0              0              0
              0              0              0              0              0              0              0              0
              0              0              0              0              0              0              0              0
              0              0              0              0              0              0              0              0
              0              0              0              0              0              0              0              0
              0              0              0              0              0              0              0              0
              0              0              0              0              0              0              0              0
              0              0              0              0              0              0              0              0
              0              0              0              0              0              0              0              0
              0              0              0              0              0              0              0              0
              0              0              0              0              0              0              0              0
              0              0              0              0              0              0              0              0
              0              0              0              0              0              0              0              0
              0              0              0              0              0              0              0              0
              0              0              0              0              0              0              0              0
              0              0              0              0              0              0              0              0
              0              0              0              0              0              0              0              0
              0              0              0              0              0              0              0              0
              0              0              0              0              0              0              0              0
              0              0              0              0              0              0              0              0
              0              0              0              0              0              0              0              0
              0              0              0              0              0              0              0              0
              0              0              0              0              0              0              0              0
              0              0              0              0              0              0              0              0
              0              0              0              0              0
            TC2              0              0              0              0              0              0              0
              0              0              0              0              0              0              0              0
              0              0              0              0              0              0              0              0
              0              0              0              0              0              0              0              0
              0              0              0              0              0              0              0              0
              0              0              0              0              0              0              0              0
              0              0              0              0              0              0              0              0
              0              0              0              0              0              0              0              0
              0              0              0              0              0              0              0              0
              0              0              0              0              0              0              0              0
              0              0              0              0              0              0              0              0
              0              0              0              0              0              0              0              0
              0              0              0              0              0              0              0              0
              0              0              0              0              0              0              0              0
              0              0              0              0              0              0              0              0
              0              0              0              0              0              0              0              0
              0              0              0              0              0              0              0              0
              0              0              0              0              0              0              0              0
              0              0              0              0              0              0              0              0
              0              0              0              0              0              0              0              0
              0              0              0              0              0              0              0              0
              0              0              0              0              0              0              0              0
              0              0              0              0              0              0              0              0
              0              0              0              0              0              0              0              0
              0              0              0              0              0              0              0              0
              0              0              0              0              0              0              0              0
              0              0              0              0              0              0              0              0
              0              0              0              0              0
            TC1              0              0              0              0              0              0              0
              0              0              0              0              0              0              0              0
              0              0              0              0              0              0              0              0
              0              0              0              0              0              0              0              0
              0              0              0              0              0              0              0              0
              0              0              0              0              0              0              0              0
              0              0              0              0              0              0              0              0
              0              0              0              0              0              0              0              0
              0              0              0              0              0              0              0              0
              0              0              0              0              0              0              0              0
              0              0              0              0              0              0              0              0
              0              0              0              0              0              0              0              0
              0              0              0              0              0              0              0              0
              0              0              0              0              0              0              0              0
              0              0              0              0              0              0              0              0
              0              0              0              0              0              0              0              0
              0              0              0              0              0              0              0              0
              0              0              0              0              0              0              0              0
              0              0              0              0              0              0              0              0
              0              0              0              0              0              0              0              0
              0              0              0              0              0              0              0              0
              0              0              0              0              0              0              0              0
              0              0              0              0              0              0              0              0
              0              0              0              0              0              0              0              0
              0              0              0              0              0              0              0              0
              0              0              0              0              0              0              0              0
              0              0              0              0              0              0              0              0
              0              0              0              0              0
           TEMP             27             27             27             27             27             27             27
             27             27             27             27             27             27             27             27
             27             27             27             27             27             27             27             27
             27             27             27             27             27             27             27             27
             27             27             27             27             27             27             27             27
             27             27             27             27             27             27             27             27
             27             27             27             27             27             27             27             27
             27             27             27             27             27             27             27             27
             27             27             27             27             27             27             27             27
             27             27             27             27             27             27             27             27
             27             27             27             27             27             27             27             27
             27             27             27             27             27             27             27             27
             27             27             27             27             27             27             27             27
             27             27             27             27             27             27             27             27
             27             27             27             27             27             27             27             27
             27             27             27             27             27             27             27             27
             27             27             27             27             27             27             27             27
             27             27             27             27             27             27             27             27
             27             27             27             27             27             27             27             27
             27             27             27             27             27             27             27             27
             27             27             27             27             27             27             27             27
             27             27             27             27             27             27             27             27
             27             27             27             27             27             27             27             27
             27             27             27             27             27             27             27             27
             27             27             27             27             27             27             27             27
             27             27             27             27             27             27             27             27
             27             27             27             27             27             27             27             27
             27             27             27             27             27
              R           2560        2.5e+06        2.5e+06           2560        2.5e+06        2.5e+06           2560
        2.5e+06        2.5e+06           2560        2.5e+06        2.5e+06           2560        2.5e+06        2.5e+06
           2560        2.5e+06        2.5e+06           2560        2.5e+06           2560        2.5e+06        2.5e+06
           2560        2.5e+06        2.5e+06           2560        2.5e+06        2.5e+06           2560        2.5e+06
        2.5e+06           2560        2.5e+06        2.5e+06           2560        2.5e+06        2.5e+06           2560
        2.5e+06        2.5e+06           2560        2.5e+06        2.5e+06           2560        2.5e+06        2.5e+06
           2560        2.5e+06        2.5e+06           2560        2.5e+06        2.5e+06           2560        2.5e+06
        2.5e+06           2560        2.5e+06        2.5e+06           2560        2.5e+06        2.5e+06           2560
        2.5e+06        2.5e+06           2560        2.5e+06           2560        2.5e+06        2.5e+06           2560
        2.5e+06        2.5e+06           2560        2.5e+06        2.5e+06           2560        2.5e+06        2.5e+06
           2560        2.5e+06        2.5e+06           2560        2.5e+06        2.5e+06           2560        2.5e+06
        2.5e+06           2560        2.5e+06        2.5e+06           2560        2.5e+06        2.5e+06           2560
        2.5e+06        2.5e+06           2560        2.5e+06        2.5e+06           2560        2.5e+06        2.5e+06
           2560        2.5e+06        2.5e+06           2560        2.5e+06        2.5e+06           2560        2.5e+06
        2.5e+06           2560        2.5e+06           2560        2.5e+06        2.5e+06           2560        2.5e+06
        2.5e+06           2560        2.5e+06        2.5e+06           2560        2.5e+06        2.5e+06           2560
        2.5e+06        2.5e+06           2560        2.5e+06        2.5e+06           2560        2.5e+06        2.5e+06
           2560        2.5e+06        2.5e+06           2560        2.5e+06        2.5e+06           2560        2.5e+06
        2.5e+06           2560        2.5e+06        2.5e+06           2560        2.5e+06        2.5e+06           2560
        2.5e+06        2.5e+06           2560        2.5e+06        2.5e+06           2560        2.5e+06        2.5e+06
           2560        2.5e+06           2560        2.5e+06        2.5e+06           2560        2.5e+06        2.5e+06
           2560        2.5e+06        2.5e+06           2560        2.5e+06        2.5e+06           2560        2.5e+06
        2.5e+06           2560        2.5e+06        2.5e+06           2560        2.5e+06        2.5e+06           2560
        2.5e+06        2.5e+06           2560        2.5e+06        2.5e+06           2560        2.5e+06           2560
        2.5e+06           2560        2.5e+06           2560        2.5e+06           2560        2.5e+06           2560
        2.5e+06           2560           2560        2.5e+06           2560        2.5e+06           2560        2.5e+06
           2560        2.5e+06           2560        2.5e+06           2560        2.5e+06           2560        2.5e+06
           2560        2.5e+06           2560        2.5e+06           2560
              M              1              1              1              1              1              1              1
              1              1              1              1              1              1              1              1
              1              1              1              1              1              1              1              1
              1              1              1              1              1              1              1              1
              1              1              1              1              1              1              1              1
              1              1              1              1              1              1              1              1
              1              1              1              1              1              1              1              1
              1              1              1              1              1              1              1              1
              1              1              1              1              1              1              1              1
              1              1              1              1              1              1              1              1
              1              1              1              1              1              1              1              1
              1              1              1              1              1              1              1              1
              1              1              1              1              1              1              1              1
              1              1              1              1              1              1              1              1
              1              1              1              1              1              1              1              1
              1              1              1              1              1              1              1              1
              1              1              1              1              1              1              1              1
              1              1              1              1              1              1              1              1
              1              1              1              1              1              1              1              1
              1              1              1              1              1              1              1              1
              1              1              1              1              1              1              1              1
              1              1              1              1              1              1              1              1
              1              1              1              1              1              1              1              1
              1              1              1              1              1              1              1              1
              1              1              1              1              1              1              1              1
              1              1              1              1              1              1              1              1
              1              1              1              1              1              1              1              1
              1              1              1              1              1
          DTEMP              0              0              0              0              0              0              0
              0              0              0              0              0              0              0              0
              0              0              0              0              0              0              0              0
              0              0              0              0              0              0              0              0
              0              0              0              0              0              0              0              0
              0              0              0              0              0              0              0              0
              0              0              0              0              0              0              0              0
              0              0              0              0              0              0              0              0
              0              0              0              0              0              0              0              0
              0              0              0              0              0              0              0              0
              0              0              0              0              0              0              0              0
              0              0              0              0              0              0              0              0
              0              0              0              0              0              0              0              0
              0              0              0              0              0              0              0              0
              0              0              0              0              0              0              0              0
              0              0              0              0              0              0              0              0
              0              0              0              0              0              0              0              0
              0              0              0              0              0              0              0              0
              0              0              0              0              0              0              0              0
              0              0              0              0              0              0              0              0
              0              0              0              0              0              0              0              0
              0              0              0              0              0              0              0              0
              0              0              0              0              0              0              0              0
              0              0              0              0              0              0              0              0
              0              0              0              0              0              0              0              0
              0              0              0              0              0              0              0              0
              0              0              0              0              0              0              0              0
              0              0              0              0              0
              W          1e-05          1e-05          1e-05          1e-05          1e-05          1e-05          1e-05
          1e-05          1e-05          1e-05          1e-05          1e-05          1e-05          1e-05          1e-05
          1e-05          1e-05          1e-05          1e-05          1e-05          1e-05          1e-05          1e-05
          1e-05          1e-05          1e-05          1e-05          1e-05          1e-05          1e-05          1e-05
          1e-05          1e-05          1e-05          1e-05          1e-05          1e-05          1e-05          1e-05
          1e-05          1e-05          1e-05          1e-05          1e-05          1e-05          1e-05          1e-05
          1e-05          1e-05          1e-05          1e-05          1e-05          1e-05          1e-05          1e-05
          1e-05          1e-05          1e-05          1e-05          1e-05          1e-05          1e-05          1e-05
          1e-05          1e-05          1e-05          1e-05          1e-05          1e-05          1e-05          1e-05
          1e-05          1e-05          1e-05          1e-05          1e-05          1e-05          1e-05          1e-05
          1e-05          1e-05          1e-05          1e-05          1e-05          1e-05          1e-05          1e-05
          1e-05          1e-05          1e-05          1e-05          1e-05          1e-05          1e-05          1e-05
          1e-05          1e-05          1e-05          1e-05          1e-05          1e-05          1e-05          1e-05
          1e-05          1e-05          1e-05          1e-05          1e-05          1e-05          1e-05          1e-05
          1e-05          1e-05          1e-05          1e-05          1e-05          1e-05          1e-05          1e-05
          1e-05          1e-05          1e-05          1e-05          1e-05          1e-05          1e-05          1e-05
          1e-05          1e-05          1e-05          1e-05          1e-05          1e-05          1e-05          1e-05
          1e-05          1e-05          1e-05          1e-05          1e-05          1e-05          1e-05          1e-05
          1e-05          1e-05          1e-05          1e-05          1e-05          1e-05          1e-05          1e-05
          1e-05          1e-05          1e-05          1e-05          1e-05          1e-05          1e-05          1e-05
          1e-05          1e-05          1e-05          1e-05          1e-05          1e-05          1e-05          1e-05
          1e-05          1e-05          1e-05          1e-05          1e-05          1e-05          1e-05          1e-05
          1e-05          1e-05          1e-05          1e-05          1e-05          1e-05          1e-05          1e-05
          1e-05          1e-05          1e-05          1e-05          1e-05          1e-05          1e-05          1e-05
          1e-05          1e-05          1e-05          1e-05          1e-05          1e-05          1e-05          1e-05
          1e-05          1e-05          1e-05          1e-05          1e-05          1e-05          1e-05          1e-05
          1e-05          1e-05          1e-05          1e-05          1e-05          1e-05          1e-05          1e-05
          1e-05          1e-05          1e-05          1e-05          1e-05
              L              0              0              0              0              0              0              0
              0              0              0              0              0              0              0              0
              0              0              0              0              0              0              0              0
              0              0              0              0              0              0              0              0
              0              0              0              0              0              0              0              0
              0              0              0              0              0              0              0              0
              0              0              0              0              0              0              0              0
              0              0              0              0              0              0              0              0
              0              0              0              0              0              0              0              0
              0              0              0              0              0              0              0              0
              0              0              0              0              0              0              0              0
              0              0              0              0              0              0              0              0
              0              0              0              0              0              0              0              0
              0              0              0              0              0              0              0              0
              0              0              0              0              0              0              0              0
              0              0              0              0              0              0              0              0
              0              0              0              0              0              0              0              0
              0              0              0              0              0              0              0              0
              0              0              0              0              0              0              0              0
              0              0              0              0              0              0              0              0
              0              0              0              0              0              0              0              0
              0              0              0              0              0              0              0              0
              0              0              0              0              0              0              0              0
              0              0              0              0              0              0              0              0
              0              0              0              0              0              0              0              0
              0              0              0              0              0              0              0              0
              0              0              0              0              0              0              0              0
              0              0              0              0              0

------------------------------------------------------------

***** Solution Summary *****
	Number Successful Steps Taken:		1
	Number Failed Steps Attempted:		0
	Number Jacobians Evaluated:		151
	Number Iteration Matrix Factorizations:	0
	Number Linear Solves:			151
	Number Failed Linear Solves:		0
	Number Linear Solver Iterations:	30200
	Number Residual Evaluations:		152
	Number Nonlinear Convergence Failures:	0
	Total Residual Load Time:		0.0124002 seconds
	Total Jacobian Load Time:		0.0139241 seconds
	Total Linear Solution Time:		2.35006 seconds


***** Total Simulation Solvers Run Time: 2.96694 seconds
***** Total Elapsed Run Time:            3.00064 seconds
*****
***** End of Xyce(TM) Simulation
*****

Timing summary of processor 0
                 Stats                   Count       CPU Time              Wall Time
---------------------------------------- ----- --------------------- ---------------------
Xyce                                         1        2.448 (100.0%)        3.166 (100.0%)
  Analysis                                   1        2.391 (97.66%)        2.967 (93.72%)
    DC Sweep                                 1        2.386 (97.48%)        2.962 (93.58%)
      Solve                                  1        2.385 (97.45%)        2.386 (75.37%)
        Residual                           152        0.012 ( 0.51%)        0.013 ( 0.40%)
        Jacobian                           151        0.014 ( 0.57%)        0.014 ( 0.45%)
        Linear Solve                       151        2.350 (96.00%)        2.350 (74.25%)
      Successful Step                        1        0.000 ( 0.01%)        0.575 (18.17%)
  Netlist Import                             1        0.015 ( 0.62%)        0.017 ( 0.55%)
    Parse Context                            1        0.003 ( 0.11%)        0.004 ( 0.12%)
    Distribute Devices                       1        0.009 ( 0.36%)        0.009 ( 0.28%)
    Verify Devices                           1        0.000 (<0.01%)        0.000 (<0.01%)
    Instantiate                              1        0.001 ( 0.04%)        0.001 ( 0.03%)
  Late Initialization                        1        0.014 ( 0.57%)        0.015 ( 0.48%)
    Global Indices                           1        0.002 ( 0.06%)        0.002 ( 0.07%)
  Setup Matrix Structure                     1        0.002 ( 0.10%)        0.003 ( 0.08%)


Timing summary of 8 processors
                                                     CPU Time              CPU Time              CPU Time              Wall Time             Wall Time             Wall Time
                 Stats                   Count   Sum (% of System)     Min (% of System)     Max (% of System)     Sum (% of System)     Min (% of System)     Max (% of System)
---------------------------------------- ----- --------------------- --------------------- --------------------- --------------------- --------------------- ---------------------
Xyce                                         8       23.610 (100.0%)        2.448 (10.37%)        3.027 (12.82%)       25.315 (100.0%)        3.164 (12.50%)        3.166 (12.51%)
  Analysis                                   8       23.132 (97.98%)        2.391 (10.13%)        2.965 (12.56%)       23.725 (93.72%)        2.965 (11.71%)        2.967 (11.72%)
    DC Sweep                                 8       23.097 (97.83%)        2.386 (10.11%)        2.961 (12.54%)       23.689 (93.58%)        2.961 (11.70%)        2.962 (11.70%)
      Solve                                  8       19.073 (80.78%)        2.377 (10.07%)        2.386 (10.11%)       19.088 (75.40%)        2.386 ( 9.43%)        2.386 ( 9.43%)
        Residual                          1216        0.104 ( 0.44%)        0.012 ( 0.05%)        0.013 ( 0.06%)        0.105 ( 0.41%)        0.013 ( 0.05%)        0.013 ( 0.05%)
        Jacobian                          1208        0.113 ( 0.48%)        0.014 ( 0.06%)        0.014 ( 0.06%)        0.114 ( 0.45%)        0.014 ( 0.06%)        0.014 ( 0.06%)
        Linear Solve                      1208       18.787 (79.57%)        2.341 ( 9.92%)        2.350 ( 9.95%)       18.799 (74.26%)        2.350 ( 9.28%)        2.350 ( 9.28%)
      Successful Step                        8        4.021 (17.03%)        0.000 (<0.01%)        0.575 ( 2.43%)        4.597 (18.16%)        0.574 ( 2.27%)        0.575 ( 2.27%)
  Netlist Import                             8        0.128 ( 0.54%)        0.013 ( 0.06%)        0.017 ( 0.07%)        0.139 ( 0.55%)        0.017 ( 0.07%)        0.017 ( 0.07%)
    Parse Context                            8        0.028 ( 0.12%)        0.003 ( 0.01%)        0.004 ( 0.02%)        0.029 ( 0.12%)        0.004 ( 0.01%)        0.004 ( 0.01%)
    Distribute Devices                       8        0.067 ( 0.29%)        0.008 ( 0.03%)        0.009 ( 0.04%)        0.070 ( 0.28%)        0.009 ( 0.03%)        0.009 ( 0.03%)
    Verify Devices                           8        0.000 (<0.01%)        0.000 (<0.01%)        0.000 (<0.01%)        0.000 (<0.01%)        0.000 (<0.01%)        0.000 (<0.01%)
    Instantiate                              8        0.007 ( 0.03%)        0.000 (<0.01%)        0.001 (<0.01%)        0.008 ( 0.03%)        0.001 (<0.01%)        0.001 (<0.01%)
  Late Initialization                        8        0.113 ( 0.48%)        0.013 ( 0.06%)        0.015 ( 0.06%)        0.122 ( 0.48%)        0.015 ( 0.06%)        0.015 ( 0.06%)
    Global Indices                           8        0.014 ( 0.06%)        0.001 (<0.01%)        0.002 (<0.01%)        0.019 ( 0.07%)        0.002 (<0.01%)        0.002 (<0.01%)
  Setup Matrix Structure                     8        0.020 ( 0.08%)        0.002 ( 0.01%)        0.003 ( 0.01%)        0.022 ( 0.09%)        0.003 ( 0.01%)        0.003 ( 0.01%)

