
*****
***** Welcome to the Xyce(TM) Parallel Electronic Simulator
*****
***** This is version Xyce Release 6.12-opensource
***** Date: Mon Aug 10 19:10:03 EDT 2020


***** Executing netlist RC_transient.cir

***** Reading and parsing netlist...
***** Setting up topology...

***** Device Count Summary ...
       C level 1 (Capacitor)                   3328
       I level 1 (Independent Current Source)   476
       R level 1 (Resistor)                    9568
       V level 1 (Independent Voltage Source)     1
       --------------------------------------------
       Total Devices                          13373
***** Setting up matrix structure...
***** Number of Unknowns = 3330
***** Initializing...

***** Beginning DC Operating Point Calculation...

***** Beginning Transient Calculation...

***** Percent complete: 1.05 %
***** Current system time: Mon Aug 10 19:10:05 2020
***** Estimated time to completion:  2 min., 25 sec.

***** Percent complete: 2.11667 %
***** Current system time: Mon Aug 10 19:10:05 2020
***** Estimated time to completion:  1 min., 24 sec.

***** Percent complete: 3.33333 %
***** Current system time: Mon Aug 10 19:10:06 2020
***** Estimated time to completion:  1 min.,  2 sec.

***** Percent complete: 4.82667 %
***** Current system time: Mon Aug 10 19:10:07 2020
***** Estimated time to completion:  1 min., 17 sec.

***** Percent complete: 6.53333 %
***** Current system time: Mon Aug 10 19:10:07 2020
***** Estimated time to completion: 56 sec.

***** Percent complete: 7.6 %
***** Current system time: Mon Aug 10 19:10:09 2020
***** Estimated time to completion:  1 min.,  1 sec.

***** Percent complete: 8.66667 %
***** Current system time: Mon Aug 10 19:10:09 2020
***** Estimated time to completion: 57 sec.

***** Percent complete: 10 %
***** Current system time: Mon Aug 10 19:10:09 2020
***** Estimated time to completion: 50 sec.

***** Percent complete: 11.4933 %
***** Current system time: Mon Aug 10 19:10:10 2020
***** Estimated time to completion: 47 sec.

***** Percent complete: 13.2 %
***** Current system time: Mon Aug 10 19:10:10 2020
***** Estimated time to completion: 41 sec.

***** Percent complete: 14.2667 %
***** Current system time: Mon Aug 10 19:10:11 2020
***** Estimated time to completion: 45 sec.

***** Percent complete: 15.3333 %
***** Current system time: Mon Aug 10 19:10:11 2020
***** Estimated time to completion: 43 sec.

***** Percent complete: 16.6667 %
***** Current system time: Mon Aug 10 19:10:12 2020
***** Estimated time to completion: 40 sec.

***** Percent complete: 18.16 %
***** Current system time: Mon Aug 10 19:10:13 2020
***** Estimated time to completion: 42 sec.

***** Percent complete: 19.8667 %
***** Current system time: Mon Aug 10 19:10:13 2020
***** Estimated time to completion: 39 sec.

***** Percent complete: 20.9333 %
***** Current system time: Mon Aug 10 19:10:14 2020
***** Estimated time to completion: 40 sec.

***** Percent complete: 22 %
***** Current system time: Mon Aug 10 19:10:14 2020
***** Estimated time to completion: 38 sec.

***** Percent complete: 23.3333 %
***** Current system time: Mon Aug 10 19:10:15 2020
***** Estimated time to completion: 36 sec.

***** Percent complete: 24.8267 %
***** Current system time: Mon Aug 10 19:10:16 2020
***** Estimated time to completion: 37 sec.

***** Percent complete: 26.5333 %
***** Current system time: Mon Aug 10 19:10:16 2020
***** Estimated time to completion: 34 sec.

***** Percent complete: 27.6 %
***** Current system time: Mon Aug 10 19:10:17 2020
***** Estimated time to completion: 34 sec.

***** Percent complete: 28.6667 %
***** Current system time: Mon Aug 10 19:10:17 2020
***** Estimated time to completion: 33 sec.

***** Percent complete: 30 %
***** Current system time: Mon Aug 10 19:10:17 2020
***** Estimated time to completion: 32 sec.

***** Percent complete: 31.0133 %
***** Current system time: Mon Aug 10 19:10:21 2020
***** Estimated time to completion: 38 sec.

***** Percent complete: 33.3333 %
***** Current system time: Mon Aug 10 19:10:21 2020
***** Estimated time to completion: 35 sec.

***** Percent complete: 34.528 %
***** Current system time: Mon Aug 10 19:10:23 2020
***** Estimated time to completion: 36 sec.

***** Percent complete: 35.8933 %
***** Current system time: Mon Aug 10 19:10:23 2020
***** Estimated time to completion: 35 sec.

***** Percent complete: 36.9397 %
***** Current system time: Mon Aug 10 19:10:24 2020
***** Estimated time to completion: 35 sec.

***** Percent complete: 38.5781 %
***** Current system time: Mon Aug 10 19:10:25 2020
***** Estimated time to completion: 34 sec.

***** Percent complete: 40 %
***** Current system time: Mon Aug 10 19:10:25 2020
***** Estimated time to completion: 32 sec.

***** Percent complete: 41.5292 %
***** Current system time: Mon Aug 10 19:10:26 2020
***** Estimated time to completion: 31 sec.

***** Percent complete: 43.2768 %
***** Current system time: Mon Aug 10 19:10:26 2020
***** Estimated time to completion: 29 sec.

***** Percent complete: 45.0859 %
***** Current system time: Mon Aug 10 19:10:27 2020
***** Estimated time to completion: 29 sec.

***** Percent complete: 46.6667 %
***** Current system time: Mon Aug 10 19:10:28 2020
***** Estimated time to completion: 27 sec.

***** Percent complete: 47.933 %
***** Current system time: Mon Aug 10 19:10:28 2020
***** Estimated time to completion: 26 sec.

***** Percent complete: 49.3803 %
***** Current system time: Mon Aug 10 19:10:28 2020
***** Estimated time to completion: 25 sec.

***** Percent complete: 50.8684 %
***** Current system time: Mon Aug 10 19:10:29 2020
***** Estimated time to completion: 24 sec.

***** Percent complete: 52.0262 %
***** Current system time: Mon Aug 10 19:10:29 2020
***** Estimated time to completion: 23 sec.

***** Percent complete: 53.3333 %
***** Current system time: Mon Aug 10 19:10:29 2020
***** Estimated time to completion: 22 sec.

***** Percent complete: 54.9543 %
***** Current system time: Mon Aug 10 19:10:30 2020
***** Estimated time to completion: 21 sec.

***** Percent complete: 56.6667 %
***** Current system time: Mon Aug 10 19:10:30 2020
***** Estimated time to completion: 20 sec.

***** Percent complete: 57.9634 %
***** Current system time: Mon Aug 10 19:10:30 2020
***** Estimated time to completion: 19 sec.

***** Percent complete: 59.4454 %
***** Current system time: Mon Aug 10 19:10:30 2020
***** Estimated time to completion: 18 sec.

***** Percent complete: 60.8892 %
***** Current system time: Mon Aug 10 19:10:31 2020
***** Estimated time to completion: 17 sec.

***** Percent complete: 62.0748 %
***** Current system time: Mon Aug 10 19:10:32 2020
***** Estimated time to completion: 17 sec.

***** Percent complete: 63.3333 %
***** Current system time: Mon Aug 10 19:10:32 2020
***** Estimated time to completion: 16 sec.

***** Percent complete: 64.9932 %
***** Current system time: Mon Aug 10 19:10:32 2020
***** Estimated time to completion: 15 sec.

***** Percent complete: 66.6667 %
***** Current system time: Mon Aug 10 19:10:33 2020
***** Estimated time to completion: 14 sec.

***** Percent complete: 67.9945 %
***** Current system time: Mon Aug 10 19:10:34 2020
***** Estimated time to completion: 14 sec.

***** Percent complete: 69.5121 %
***** Current system time: Mon Aug 10 19:10:34 2020
***** Estimated time to completion: 13 sec.

***** Percent complete: 70.9105 %
***** Current system time: Mon Aug 10 19:10:35 2020
***** Estimated time to completion: 12 sec.

***** Percent complete: 72.1246 %
***** Current system time: Mon Aug 10 19:10:35 2020
***** Estimated time to completion: 12 sec.

***** Percent complete: 73.3333 %
***** Current system time: Mon Aug 10 19:10:36 2020
***** Estimated time to completion: 11 sec.

***** Percent complete: 75.033 %
***** Current system time: Mon Aug 10 19:10:37 2020
***** Estimated time to completion: 11 sec.

***** Percent complete: 76.6667 %
***** Current system time: Mon Aug 10 19:10:37 2020
***** Estimated time to completion: 10 sec.

***** Percent complete: 78.0264 %
***** Current system time: Mon Aug 10 19:10:37 2020
***** Estimated time to completion:  9 sec.

***** Percent complete: 79.5804 %
***** Current system time: Mon Aug 10 19:10:38 2020
***** Estimated time to completion:  8 sec.

***** Percent complete: 80.9324 %
***** Current system time: Mon Aug 10 19:10:38 2020
***** Estimated time to completion:  8 sec.

***** Percent complete: 82.1756 %
***** Current system time: Mon Aug 10 19:10:38 2020
***** Estimated time to completion:  7 sec.

***** Percent complete: 83.3333 %
***** Current system time: Mon Aug 10 19:10:38 2020
***** Estimated time to completion:  6 sec.

***** Percent complete: 85.0738 %
***** Current system time: Mon Aug 10 19:10:39 2020
***** Estimated time to completion:  6 sec.

***** Percent complete: 86.6667 %
***** Current system time: Mon Aug 10 19:10:39 2020
***** Estimated time to completion:  5 sec.

***** Percent complete: 88.059 %
***** Current system time: Mon Aug 10 19:10:41 2020
***** Estimated time to completion:  5 sec.

***** Percent complete: 89.6503 %
***** Current system time: Mon Aug 10 19:10:41 2020
***** Estimated time to completion:  4 sec.

***** Percent complete: 90.9548 %
***** Current system time: Mon Aug 10 19:10:42 2020
***** Estimated time to completion:  3 sec.

***** Percent complete: 92.2278 %
***** Current system time: Mon Aug 10 19:10:42 2020
***** Estimated time to completion:  3 sec.

***** Percent complete: 93.3333 %
***** Current system time: Mon Aug 10 19:10:42 2020
***** Estimated time to completion:  2 sec.

***** Percent complete: 95.1156 %
***** Current system time: Mon Aug 10 19:10:43 2020
***** Estimated time to completion:  2 sec.

***** Percent complete: 96.6667 %
***** Current system time: Mon Aug 10 19:10:43 2020
***** Estimated time to completion:  1 sec.

***** Percent complete: 98.0924 %
***** Current system time: Mon Aug 10 19:10:45 2020
***** Estimated time to completion:  0 sec.

***** Percent complete: 99.7219 %
***** Current system time: Mon Aug 10 19:10:45 2020
***** Estimated time to completion:  0 sec.

***** Problem read in and set up time: 0.276106 seconds
 ***** DCOP time: 0.235581 seconds.  Breakdown follows:
	Number Successful Steps Taken:		1
	Number Failed Steps Attempted:		0
	Number Jacobians Evaluated:		4
	Number Iteration Matrix Factorizations:	0
	Number Linear Solves:			4
	Number Failed Linear Solves:		0
	Number Residual Evaluations:		5
	Number Nonlinear Convergence Failures:	0
	Total Residual Load Time:		0.00234628 seconds
	Total Jacobian Load Time:		0.00271082 seconds
	Total Linear Solution Time:		0.216278 seconds

 ***** Transient Stepping time: 41.6896 seconds.  Breakdown follows:
	Number Successful Steps Taken:		145
	Number Failed Steps Attempted:		1
	Number Jacobians Evaluated:		834
	Number Iteration Matrix Factorizations:	0
	Number Linear Solves:			834
	Number Failed Linear Solves:		0
	Number Residual Evaluations:		980
	Number Nonlinear Convergence Failures:	1
	Total Residual Load Time:		0.14192 seconds
	Total Jacobian Load Time:		0.38911 seconds
	Total Linear Solution Time:		40.9343 seconds


***** Solution Summary *****
	Number Successful Steps Taken:		146
	Number Failed Steps Attempted:		1
	Number Jacobians Evaluated:		838
	Number Iteration Matrix Factorizations:	0
	Number Linear Solves:			838
	Number Failed Linear Solves:		0
	Number Residual Evaluations:		985
	Number Nonlinear Convergence Failures:	1
	Total Residual Load Time:		0.144266 seconds
	Total Jacobian Load Time:		0.39182 seconds
	Total Linear Solution Time:		41.1506 seconds


***** Total Simulation Solvers Run Time: 41.9763 seconds
***** Total Elapsed Run Time:            42.2276 seconds
*****
***** End of Xyce(TM) Simulation
*****

Timing summary of processor 0
                 Stats                   Count       CPU Time              Wall Time
---------------------------------------- ----- --------------------- ---------------------
Xyce                                         1       41.565 (100.0%)       42.381 (100.0%)
  Analysis                                   1       41.297 (99.36%)       41.976 (99.04%)
    Transient                                1       41.272 (99.30%)       41.951 (98.99%)
      Nonlinear Solve                      147       41.077 (98.83%)       41.723 (98.45%)
        Residual                           985        0.142 ( 0.34%)        0.146 ( 0.34%)
        Jacobian                           838        0.383 ( 0.92%)        0.393 ( 0.93%)
        Linear Solve                       838       40.520 (97.49%)       41.153 (97.10%)
      Successful DCOP Steps                  1        0.008 ( 0.02%)        0.010 ( 0.02%)
      Successful Step                      145        0.168 ( 0.40%)        0.173 ( 0.41%)
      Failed Steps                           1        0.000 (<0.01%)        0.000 (<0.01%)
        Nonlinear Failure                    1        0.000 (<0.01%)        0.000 (<0.01%)
  Netlist Import                             1        0.177 ( 0.43%)        0.185 ( 0.44%)
    Parse Context                            1        0.027 ( 0.06%)        0.028 ( 0.07%)
    Distribute Devices                       1        0.111 ( 0.27%)        0.116 ( 0.27%)
    Verify Devices                           1        0.000 (<0.01%)        0.000 (<0.01%)
    Instantiate                              1        0.026 ( 0.06%)        0.026 ( 0.06%)
  Late Initialization                        1        0.064 ( 0.15%)        0.065 ( 0.15%)
    Global Indices                           1        0.021 ( 0.05%)        0.021 ( 0.05%)
  Setup Matrix Structure                     1        0.009 ( 0.02%)        0.010 ( 0.02%)


Timing summary of 4 processors
                                                     CPU Time              CPU Time              CPU Time              Wall Time             Wall Time             Wall Time
                 Stats                   Count   Sum (% of System)     Min (% of System)     Max (% of System)     Sum (% of System)     Min (% of System)     Max (% of System)
---------------------------------------- ----- --------------------- --------------------- --------------------- --------------------- --------------------- ---------------------
Xyce                                         4     2:47.977 (100.0%)       41.565 (24.74%)       42.189 (25.12%)     2:49.442 (100.0%)       42.353 (25.00%)       42.381 (25.01%)
  Analysis                                   4     2:46.876 (99.34%)       41.297 (24.59%)       41.908 (24.95%)     2:47.823 (99.04%)       41.949 (24.76%)       41.976 (24.77%)
    Transient                                4     2:46.777 (99.29%)       41.272 (24.57%)       41.884 (24.93%)     2:47.725 (98.99%)       41.924 (24.74%)       41.951 (24.76%)
      Nonlinear Solve                      588     2:46.070 (98.86%)       41.077 (24.45%)       41.689 (24.82%)     2:46.902 (98.50%)       41.723 (24.62%)       41.728 (24.63%)
        Residual                          3940        0.603 ( 0.36%)        0.142 ( 0.08%)        0.159 ( 0.09%)        0.618 ( 0.36%)        0.146 ( 0.09%)        0.163 ( 0.10%)
        Jacobian                          3352        1.553 ( 0.92%)        0.380 ( 0.23%)        0.395 ( 0.24%)        1.626 ( 0.96%)        0.393 ( 0.23%)        0.414 ( 0.24%)
        Linear Solve                      3352     2:43.795 (97.51%)       40.520 (24.12%)       41.115 (24.48%)     2:44.543 (97.11%)       41.123 (24.27%)       41.153 (24.29%)
      Successful DCOP Steps                  4        0.038 ( 0.02%)        0.008 (<0.01%)        0.010 (<0.01%)        0.040 ( 0.02%)        0.010 (<0.01%)        0.010 (<0.01%)
      Successful Step                      580        0.412 ( 0.25%)        0.071 ( 0.04%)        0.168 ( 0.10%)        0.496 ( 0.29%)        0.106 ( 0.06%)        0.173 ( 0.10%)
      Failed Steps                           4        0.000 (<0.01%)        0.000 (<0.01%)        0.000 (<0.01%)        0.000 (<0.01%)        0.000 (<0.01%)        0.000 (<0.01%)
        Nonlinear Failure                    4        0.000 (<0.01%)        0.000 ( 0.00%)        0.000 (<0.01%)        0.000 (<0.01%)        0.000 ( 0.00%)        0.000 (<0.01%)
  Netlist Import                             4        0.711 ( 0.42%)        0.177 ( 0.11%)        0.180 ( 0.11%)        0.738 ( 0.44%)        0.185 ( 0.11%)        0.185 ( 0.11%)
    Parse Context                            4        0.110 ( 0.07%)        0.027 ( 0.02%)        0.028 ( 0.02%)        0.113 ( 0.07%)        0.028 ( 0.02%)        0.028 ( 0.02%)
    Distribute Devices                       4        0.451 ( 0.27%)        0.111 ( 0.07%)        0.115 ( 0.07%)        0.461 ( 0.27%)        0.115 ( 0.07%)        0.116 ( 0.07%)
    Verify Devices                           4        0.000 (<0.01%)        0.000 (<0.01%)        0.000 (<0.01%)        0.000 (<0.01%)        0.000 (<0.01%)        0.000 (<0.01%)
    Instantiate                              4        0.080 ( 0.05%)        0.013 (<0.01%)        0.026 ( 0.02%)        0.082 ( 0.05%)        0.015 (<0.01%)        0.026 ( 0.02%)
  Late Initialization                        4        0.261 ( 0.16%)        0.064 ( 0.04%)        0.066 ( 0.04%)        0.262 ( 0.15%)        0.065 ( 0.04%)        0.066 ( 0.04%)
    Global Indices                           4        0.083 ( 0.05%)        0.021 ( 0.01%)        0.021 ( 0.01%)        0.083 ( 0.05%)        0.021 ( 0.01%)        0.021 ( 0.01%)
  Setup Matrix Structure                     4        0.041 ( 0.02%)        0.009 (<0.01%)        0.010 (<0.01%)        0.042 ( 0.02%)        0.010 (<0.01%)        0.010 (<0.01%)

